[General]
network = Carrefour
cmdenv-runs-to-execute = 
num-rngs = 31
parallel-simulation = false
parsim-debug = false
repeat = 1
seed-set = ${runnumber}
simtime-resolution = ps
**.lambda = ${150, 50, 30, 20, 18.75}
**.numeroCasse = 2
**.mu = 30
**.tipoSimulazione = 0
**.delay = 3
**.ServiceType = 1
sim-time-limit = 43200s
**.varianceLogNormal = 0.25
**.meanLogNormal = 30
