[General]
network = Carrefour
cmdenv-runs-to-execute = 
num-rngs = 31
parallel-simulation = false
parsim-debug = false
repeat = 30
seed-set = ${runnumber}
sim-time-limit = 800000s
simtime-resolution = ps
**.lambda = ${60, 70, 80, 100, 120, 140, 150, 180}
**.numeroCasse = 6
**.mu = 300
**.tipoSimulazione = 1 #0 SingleQueue #1 MultipleQueue
**.delay = 10
**.ServiceType = 1 #0 Exponential #1 LogNormal
**.meanLogNormal = 300
**.varianceLogNormal = 0.5
