[General]
network = Carrefour
cmdenv-runs-to-execute = 
num-rngs = 31
parallel-simulation = false
parsim-debug = false
repeat = 2
seed-set = ${runnumber}
simtime-resolution = ps
**.lambda =${4, 6, 10, 30}
**.numeroCasse = 10
**.mu = 30
**.tipoSimulazione = 0
**.delay = 0
**.ServiceType = 0
sim-time-limit = 43200s
**.meanLogNormal = 30
**.varianceLogNormal = 0.5
