[General]
network = Carrefour
cmdenv-runs-to-execute = 
num-rngs = 31
parallel-simulation = false
parsim-debug = false
repeat = 30
seed-set = ${runnumber}
sim-time-limit = 800000s
simtime-resolution = ps
**.lambda = ${60, 70, 80, 100, 120, 180, 240, 420}
**.numeroCasse = 6
**.mu = 300
**.tipoSimulazione = 1
**.delay = 10
**.ServiceType = 0
**.meanLogNormal = 30
**.varianceLogNormal = 0.5
